           4
  Built with Packmol                                             
  U            2.465161        3.284670        3.677766
  Cl           1.537680        3.821348        5.936472
  Cl           1.379658        1.477956        2.277778
  Cl           4.478146        4.554708        2.819046
